LTspice 24.1.10 for Windows
Circuit: Z:\home\violet\projects\wpi\NVM-MQP\spice\2N3819.net
Start Time: Tue Sep 30 13:42:07 2025
solver = Normal
Maximum thread count: 8
tnom = 27
temp = 27
method = trap
Direct Newton iteration for .op point succeeded.
Total elapsed time: 0.038 seconds.

Files loaded:
Z:\home\violet\projects\wpi\NVM-MQP\spice\2N3819.net
C:\users\violet\AppData\Local\LTspice\lib\cmp\standard.jft

