LTspice 24.1.10 for Windows
Circuit: Z:\home\violet\projects\wpi\NVM-MQP\spice\2N3819_circuit_2.net
Start Time: Tue Nov 11 08:58:17 2025
solver = Normal
Maximum thread count: 8
tnom = 27
temp = 27
method = trap
Direct Newton iteration for .op point succeeded.
Total elapsed time: 0.018 seconds.

Files loaded:
Z:\home\violet\projects\wpi\NVM-MQP\spice\2N3819_circuit_2.net
C:\users\violet\AppData\Local\LTspice\lib\cmp\standard.jft

