LTspice 24.1.10 for Windows
Circuit: Z:\home\violet\projects\wpi\NVM-MQP\spice\Draft3.net
Start Time: Tue Nov 11 09:11:31 2025
solver = Normal
Maximum thread count: 8
tnom = 27
temp = 27
method = trap
Direct Newton iteration for .op point succeeded.
Total elapsed time: 0.062 seconds.

Files loaded:
Z:\home\violet\projects\wpi\NVM-MQP\spice\Draft3.net
C:\users\violet\AppData\Local\LTspice\lib\sub\OP482.lib

